SLAB
PRIMVEC
 4.08659770612896 0.00000000000000 0.00000000000000
 0.00000000000000 4.08659770612896 0.00000000000000
 0.00000000000000 0.00000000000000 22.39937426276310
PRIMCOORD
 4 1
 82     0.00000000000000     2.04329885306448    12.39937426276310
 82     2.04329885306448     0.00000000000000    10.00000000000000
  8     0.00000000000000     0.00000000000000    11.19968713138160
  8     2.04329885306448     2.04329885306448    11.19968713138160
